/*--------------------------------*- C++ -*----------------------------------*\
| =========                 |                                                 |
| \\      /  F ield         | OpenFOAM: The Open Source CFD Toolbox           |
|  \\    /   O peration     | Version:  3.0.x                                 |
|   \\  /    A nd           | Web:      www.OpenFOAM.org                      |
|    \\/     M anipulation  |                                                 |
\*---------------------------------------------------------------------------*/
FoamFile
{
    version     2.0;
    format      ascii;
    class       dictionary;
    object      controlDict;
}
// * * * * * * * * * * * * * * * * * * * * * * * * * * * * * * * * * * * * * //

application     icoFoam;

startFrom       latestTime;

startTime       0;

stopAt          endTime;

endTime         500;

deltaT          0.001;

writeControl    runTime;

writeInterval   0.1;

purgeWrite      0;

writeFormat     ascii;

writePrecision  8;

writeCompression off;

timeFormat      general;

timePrecision   6;

runTimeModifiable true;

// ************************************************************************* //

functions
{

///////////////////////////////////////////////////////////////////////////

minmaxdomain
{
    type fieldMinMax;

    functionObjectLibs ("libfieldFunctionObjects.so");

    enabled true; //true or false

    mode component;

    outputControl timeStep;
    outputInterval 1;

    log true;

    fields (p U);
}
 
    fieldAverage
    {
        type            fieldAverage;
        functionObjectLibs ("libfieldFunctionObjects.so");
        enabled         true;
        outputControl   outputTime;

	//outputControl   timeStep;
	//outputInterval  100;

	//cleanRestart true;

	//timeStart       20;
	//timeEnd         200;

        fields
        (
            U
            {
                mean        on;
                prime2Mean  on;
                base        time;
            }

            p
            {
                mean        on;
                prime2Mean  on;
                base        time;
            }
        );
    }

///////////////////////////////////////////////////////////////////////////

///////////////////////////////////////////////////////////////////////////
/*
residuals
{
	functionObjectLibs ("libutilityFunctionObjects.so");

	type residuals;

	enabled true; 

	outputControl timeStep;
	outputInterval 1;

	fields (p U);
}
*/
///////////////////////////////////////////////////////////////////////////

};
